SOLVER= RANS
KIND_TURB_MODEL= SA
MATH_PROBLEM= DIRECT
RESTART_SOL= YES
MACH_NUMBER= 0.734
AOA= 2.31
FREESTREAM_TEMPERATURE= 288.15
REYNOLDS_NUMBER= 6.5E6
REYNOLDS_LENGTH= 1.0
GAMMA_VALUE= 1.4
CONDUCTIVITY_MODEL= CONSTANT_PRANDTL
PRANDTL_LAM= 0.71
FIXED_CL_MODE= YES
TARGET_CL= 0.824
DCL_DALPHA= 0.2
UPDATE_AOA_ITER_LIMIT= 100
ITER_DCL_DALPHA= 500
EVAL_DOF_DCX= NO
REF_ORIGIN_MOMENT_X= 0.25
REF_ORIGIN_MOMENT_Y= 0.00
REF_ORIGIN_MOMENT_Z= 0.00
REF_LENGTH= 1.0
REF_AREA= 1.0
MARKER_HEATFLUX= ( AIRFOIL, 0.0 )
MARKER_FAR= ( FARFIELD )
MARKER_PLOTTING= ( AIRFOIL )
MARKER_MONITORING= ( AIRFOIL )
NUM_METHOD_GRAD= WEIGHTED_LEAST_SQUARES
CFL_NUMBER= 10.0
ITER= 5000
OBJECTIVE_FUNCTION= DRAG
MUSCL_FLOW= NO
SLOPE_LIMITER_FLOW= VENKATAKRISHNAN
MUSCL_TURB= NO
SLOPE_LIMITER_TURB= VENKATAKRISHNAN
MUSCL_ADJFLOW= NO
SLOPE_LIMITER_ADJFLOW= VENKATAKRISHNAN
MUSCL_ADJTURB= NO
SLOPE_LIMITER_ADJTURB= VENKATAKRISHNAN
VENKAT_LIMITER_COEFF= 0.05
ADJ_SHARP_LIMITER_COEFF= 3.0
LIMITER_ITER= 999999
LAX_SENSOR_COEFF= 0.15
JST_SENSOR_COEFF= ( 0.5, 0.02 )
ADJ_LAX_SENSOR_COEFF= 0.15
ADJ_JST_SENSOR_COEFF= ( 0.5, 0.02 )
CONV_NUM_METHOD_FLOW= JST
ENTROPY_FIX_COEFF= 0.001
TIME_DISCRE_FLOW= EULER_IMPLICIT
CONV_NUM_METHOD_TURB= SCALAR_UPWIND
TIME_DISCRE_TURB= EULER_IMPLICIT
CFL_REDUCTION_TURB= 1.0
CONV_NUM_METHOD_ADJFLOW= JST
TIME_DISCRE_ADJFLOW= EULER_IMPLICIT
RELAXATION_FACTOR_ADJOINT= 1.0
CFL_REDUCTION_ADJFLOW= 0.8
LIMIT_ADJFLOW= 1E6
GEO_MARKER= ( AIRFOIL )
GEO_DESCRIPTION= AIRFOIL
GEO_MODE= FUNCTION
CONV_RESIDUAL_MINVAL= -12
CONV_STARTITER= 10
CONV_CAUCHY_ELEMS= 100
CONV_CAUCHY_EPS= 1E-6
MESH_FILENAME= mesh_RAE2822_turb.su2
MESH_FORMAT= SU2
MESH_OUT_FILENAME= mesh_RAE2822_turb_deform.su2
SOLUTION_FILENAME= solution_flow.dat
SOLUTION_ADJ_FILENAME= solution_adj.dat
TABULAR_FORMAT= CSV
CONV_FILENAME= history
RESTART_FILENAME= restart_flow.dat
RESTART_ADJ_FILENAME= restart_adj.dat
VOLUME_FILENAME= flow
VOLUME_ADJ_FILENAME= adjoint
GRAD_OBJFUNC_FILENAME= of_grad.dat
SURFACE_FILENAME= surface_flow
SURFACE_ADJ_FILENAME= surface_adjoint
OUTPUT_WRT_FREQ= 10000
SCREEN_OUTPUT= (INNER_ITER, RMS_DENSITY, RMS_NU_TILDE, LIFT, DRAG)
OUTPUT_FILES= (RESTART, PARAVIEW, SURFACE_PARAVIEW, SURFACE_CSV)
DV_KIND= HICKS_HENNE, HICKS_HENNE, HICKS_HENNE, HICKS_HENNE, HICKS_HENNE, HICKS_HENNE, HICKS_HENNE, HICKS_HENNE, HICKS_HENNE, HICKS_HENNE, HICKS_HENNE, HICKS_HENNE, HICKS_HENNE, HICKS_HENNE, HICKS_HENNE, HICKS_HENNE, HICKS_HENNE, HICKS_HENNE, HICKS_HENNE, HICKS_HENNE, HICKS_HENNE, HICKS_HENNE, HICKS_HENNE, HICKS_HENNE, HICKS_HENNE, HICKS_HENNE, HICKS_HENNE, HICKS_HENNE, HICKS_HENNE, HICKS_HENNE, HICKS_HENNE, HICKS_HENNE, HICKS_HENNE, HICKS_HENNE, HICKS_HENNE, HICKS_HENNE, HICKS_HENNE, HICKS_HENNE
DV_MARKER= ( ( AIRFOIL ) )
DV_PARAM= ( 0.0, 0.05) ; ( 0.0, 0.1) ; ( 0.0, 0.15) ; ( 0.0, 0.2) ; ( 0.0, 0.25) ; ( 0.0, 0.3) ; ( 0.0, 0.35) ; ( 0.0, 0.4) ; ( 0.0, 0.45) ; ( 0.0, 0.5) ; ( 0.0, 0.55) ; ( 0.0, 0.6) ; ( 0.0, 0.65) ; ( 0.0, 0.7) ; ( 0.0, 0.75) ; ( 0.0, 0.8) ; ( 0.0, 0.85) ; ( 0.0, 0.9) ; ( 0.0, 0.95) ; ( 1.0, 0.05) ; ( 1.0, 0.1) ; ( 1.0, 0.15) ; ( 1.0, 0.2) ; ( 1.0, 0.25) ; ( 1.0, 0.3) ; ( 1.0, 0.35) ; ( 1.0, 0.4) ; ( 1.0, 0.45) ; ( 1.0, 0.5) ; ( 1.0, 0.55) ; ( 1.0, 0.6) ; ( 1.0, 0.65) ; ( 1.0, 0.7) ; ( 1.0, 0.75) ; ( 1.0, 0.8) ; ( 1.0, 0.85) ; ( 1.0, 0.9) ; ( 1.0, 0.95) 
DV_VALUE= -9.613635225391769e-06, -7.344946304046037e-06, -5.089757304474395e-06, -2.9893281974210406e-06, -1.057339906490374e-06, 7.486799566231426e-07, 2.4980675100133865e-06, 4.259596997769231e-06, 6.082477097354092e-06, 7.97268781174446e-06, 9.84566238905768e-06, 1.1489770651704787e-05, 1.2554918574099313e-05, 1.2547847649231593e-05, 1.0925345060948488e-05, 7.317220426974925e-06, 1.6592855893016806e-06, -6.13283786646483e-06, -2.1268407141376826e-05, -3.3606830830358325e-06, -1.908837834558918e-05, -2.067735619016459e-05, -1.5570047300318598e-05, -9.761759503460085e-06, -6.418146047746464e-06, -5.907658096226605e-06, -6.5228931562386515e-06, -5.691126869775934e-06, -1.5819750466802938e-06, 5.407105026087683e-06, 1.2063883550820254e-05, 1.3681215185965502e-05, 7.761144326888503e-06, -1.8353956371919965e-06, -5.5193895333647985e-06, 2.3220457938045334e-06, 1.4669045417154e-05, 1.9632709859576523e-05
OPT_OBJECTIVE= DRAG * 1.0 
OPT_CONSTRAINT= ( MOMENT_Z < 0.092 ) * 0.001; ( AIRFOIL_AREA > 0.0778446 ) * 0.001
OPT_GRADIENT_FACTOR= 1E-6
OPT_RELAX_FACTOR= 1E2
OPT_ITERATIONS= 100
OPT_ACCURACY= 1E-10
OPT_LINE_SEARCH_BOUND= 1E6
OPT_BOUND_UPPER= 1E10
OPT_BOUND_LOWER= -1E10
DEFINITION_DV= ( 30 , 1.0 | AIRFOIL  | 0.0 , 0.05  ); ( 30 , 1.0 | AIRFOIL  | 0.0 , 0.1  ); ( 30 , 1.0 | AIRFOIL  | 0.0 , 0.15  ); ( 30 , 1.0 | AIRFOIL  | 0.0 , 0.2  ); ( 30 , 1.0 | AIRFOIL  | 0.0 , 0.25  ); ( 30 , 1.0 | AIRFOIL  | 0.0 , 0.3  ); ( 30 , 1.0 | AIRFOIL  | 0.0 , 0.35  ); ( 30 , 1.0 | AIRFOIL  | 0.0 , 0.4  ); ( 30 , 1.0 | AIRFOIL  | 0.0 , 0.45  ); ( 30 , 1.0 | AIRFOIL  | 0.0 , 0.5  ); ( 30 , 1.0 | AIRFOIL  | 0.0 , 0.55  ); ( 30 , 1.0 | AIRFOIL  | 0.0 , 0.6  ); ( 30 , 1.0 | AIRFOIL  | 0.0 , 0.65  ); ( 30 , 1.0 | AIRFOIL  | 0.0 , 0.7  ); ( 30 , 1.0 | AIRFOIL  | 0.0 , 0.75  ); ( 30 , 1.0 | AIRFOIL  | 0.0 , 0.8  ); ( 30 , 1.0 | AIRFOIL  | 0.0 , 0.85  ); ( 30 , 1.0 | AIRFOIL  | 0.0 , 0.9  ); ( 30 , 1.0 | AIRFOIL  | 0.0 , 0.95  ); ( 30 , 1.0 | AIRFOIL  | 1.0 , 0.05  ); ( 30 , 1.0 | AIRFOIL  | 1.0 , 0.1  ); ( 30 , 1.0 | AIRFOIL  | 1.0 , 0.15  ); ( 30 , 1.0 | AIRFOIL  | 1.0 , 0.2  ); ( 30 , 1.0 | AIRFOIL  | 1.0 , 0.25  ); ( 30 , 1.0 | AIRFOIL  | 1.0 , 0.3  ); ( 30 , 1.0 | AIRFOIL  | 1.0 , 0.35  ); ( 30 , 1.0 | AIRFOIL  | 1.0 , 0.4  ); ( 30 , 1.0 | AIRFOIL  | 1.0 , 0.45  ); ( 30 , 1.0 | AIRFOIL  | 1.0 , 0.5  ); ( 30 , 1.0 | AIRFOIL  | 1.0 , 0.55  ); ( 30 , 1.0 | AIRFOIL  | 1.0 , 0.6  ); ( 30 , 1.0 | AIRFOIL  | 1.0 , 0.65  ); ( 30 , 1.0 | AIRFOIL  | 1.0 , 0.7  ); ( 30 , 1.0 | AIRFOIL  | 1.0 , 0.75  ); ( 30 , 1.0 | AIRFOIL  | 1.0 , 0.8  ); ( 30 , 1.0 | AIRFOIL  | 1.0 , 0.85  ); ( 30 , 1.0 | AIRFOIL  | 1.0 , 0.9  ); ( 30 , 1.0 | AIRFOIL  | 1.0 , 0.95  )
DV_VALUE_NEW= -9.613635225391769e-06, -7.344946304046037e-06, -5.089757304474395e-06, -2.9893281974210406e-06, -1.057339906490374e-06, 7.486799566231426e-07, 2.4980675100133865e-06, 4.259596997769231e-06, 6.082477097354092e-06, 7.97268781174446e-06, 9.84566238905768e-06, 1.1489770651704787e-05, 1.2554918574099313e-05, 1.2547847649231593e-05, 1.0925345060948488e-05, 7.317220426974925e-06, 1.6592855893016806e-06, -6.13283786646483e-06, -2.1268407141376826e-05, -3.3606830830358325e-06, -1.908837834558918e-05, -2.067735619016459e-05, -1.5570047300318598e-05, -9.761759503460085e-06, -6.418146047746464e-06, -5.907658096226605e-06, -6.5228931562386515e-06, -5.691126869775934e-06, -1.5819750466802938e-06, 5.407105026087683e-06, 1.2063883550820254e-05, 1.3681215185965502e-05, 7.761144326888503e-06, -1.8353956371919965e-06, -5.5193895333647985e-06, 2.3220457938045334e-06, 1.4669045417154e-05, 1.9632709859576523e-05
DV_VALUE_OLD= 0.0, 0.0, 0.0, 0.0, 0.0, 0.0, 0.0, 0.0, 0.0, 0.0, 0.0, 0.0, 0.0, 0.0, 0.0, 0.0, 0.0, 0.0, 0.0, 0.0, 0.0, 0.0, 0.0, 0.0, 0.0, 0.0, 0.0, 0.0, 0.0, 0.0, 0.0, 0.0, 0.0, 0.0, 0.0, 0.0, 0.0, 0.0
OPT_COMBINE_OBJECTIVE= NO
VALUE_OBJFUNC_FILENAME= of_eval.dat
SIDESLIP_ANGLE= 0.0
FREESTREAM_PRESSURE= 101325.0
MARKER_OUTLET= (NONE)
MULTIPOINT_WEIGHT= (1.0)
MULTIPOINT_MACH_NUMBER= (0.734)
MULTIPOINT_AOA= (2.31)
MULTIPOINT_SIDESLIP_ANGLE= (0.0)
MULTIPOINT_REYNOLDS_NUMBER= (6.5E6)
MULTIPOINT_TARGET_CL= (0.824)
MULTIPOINT_FREESTREAM_PRESSURE= (101325.0)
MULTIPOINT_FREESTREAM_TEMPERATURE= (288.15)
MULTIPOINT_OUTLET_VALUE= (0.0)
MULTIPOINT_MESH_FILENAME= (mesh_RAE2822_turb.su2)
HISTORY_OUTPUT= ITER, RMS_RES, AERO_COEFF
NUMBER_PART= 6
NZONES= 1
CONSOLE= CONCISE
GRADIENT_METHOD= DISCRETE_ADJOINT
