SOLVER= RANS
KIND_TURB_MODEL= SA
MATH_PROBLEM= DIRECT
RESTART_SOL= YES
MACH_NUMBER= 0.734
AOA= 2.31
FREESTREAM_TEMPERATURE= 288.15
REYNOLDS_NUMBER= 6.5E6
REYNOLDS_LENGTH= 1.0
GAMMA_VALUE= 1.4
CONDUCTIVITY_MODEL= CONSTANT_PRANDTL
PRANDTL_LAM= 0.71
FIXED_CL_MODE= YES
TARGET_CL= 0.824
DCL_DALPHA= 0.2
UPDATE_AOA_ITER_LIMIT= 100
ITER_DCL_DALPHA= 500
EVAL_DOF_DCX= NO
REF_ORIGIN_MOMENT_X= 0.25
REF_ORIGIN_MOMENT_Y= 0.00
REF_ORIGIN_MOMENT_Z= 0.00
REF_LENGTH= 1.0
REF_AREA= 1.0
MARKER_HEATFLUX= ( AIRFOIL, 0.0 )
MARKER_FAR= ( FARFIELD )
MARKER_PLOTTING= ( AIRFOIL )
MARKER_MONITORING= ( AIRFOIL )
NUM_METHOD_GRAD= WEIGHTED_LEAST_SQUARES
CFL_NUMBER= 10.0
ITER= 5000
OBJECTIVE_FUNCTION= DRAG
MUSCL_FLOW= NO
SLOPE_LIMITER_FLOW= VENKATAKRISHNAN
MUSCL_TURB= NO
SLOPE_LIMITER_TURB= VENKATAKRISHNAN
MUSCL_ADJFLOW= NO
SLOPE_LIMITER_ADJFLOW= VENKATAKRISHNAN
MUSCL_ADJTURB= NO
SLOPE_LIMITER_ADJTURB= VENKATAKRISHNAN
VENKAT_LIMITER_COEFF= 0.05
ADJ_SHARP_LIMITER_COEFF= 3.0
LIMITER_ITER= 999999
LAX_SENSOR_COEFF= 0.15
JST_SENSOR_COEFF= ( 0.5, 0.02 )
ADJ_LAX_SENSOR_COEFF= 0.15
ADJ_JST_SENSOR_COEFF= ( 0.5, 0.02 )
CONV_NUM_METHOD_FLOW= JST
ENTROPY_FIX_COEFF= 0.001
TIME_DISCRE_FLOW= EULER_IMPLICIT
CONV_NUM_METHOD_TURB= SCALAR_UPWIND
TIME_DISCRE_TURB= EULER_IMPLICIT
CFL_REDUCTION_TURB= 1.0
CONV_NUM_METHOD_ADJFLOW= JST
TIME_DISCRE_ADJFLOW= EULER_IMPLICIT
RELAXATION_FACTOR_ADJOINT= 1.0
CFL_REDUCTION_ADJFLOW= 0.8
LIMIT_ADJFLOW= 1E6
GEO_MARKER= ( AIRFOIL )
GEO_DESCRIPTION= AIRFOIL
GEO_MODE= FUNCTION
CONV_RESIDUAL_MINVAL= -12
CONV_STARTITER= 10
CONV_CAUCHY_ELEMS= 100
CONV_CAUCHY_EPS= 1E-6
MESH_FILENAME= mesh_RAE2822_turb_deform.su2
MESH_FORMAT= SU2
MESH_OUT_FILENAME= mesh_out.su2
SOLUTION_FILENAME= solution_flow.dat
SOLUTION_ADJ_FILENAME= solution_adj.dat
TABULAR_FORMAT= CSV
CONV_FILENAME= history_direct
RESTART_FILENAME= restart_flow.dat
RESTART_ADJ_FILENAME= restart_adj.dat
VOLUME_FILENAME= flow
VOLUME_ADJ_FILENAME= adjoint
GRAD_OBJFUNC_FILENAME= of_grad.dat
SURFACE_FILENAME= surface_flow
SURFACE_ADJ_FILENAME= surface_adjoint
OUTPUT_WRT_FREQ= 10000
SCREEN_OUTPUT= (INNER_ITER, RMS_DENSITY, RMS_NU_TILDE, LIFT, DRAG)
OUTPUT_FILES= (RESTART, PARAVIEW, SURFACE_PARAVIEW, SURFACE_CSV)
DV_KIND= HICKS_HENNE, HICKS_HENNE, HICKS_HENNE, HICKS_HENNE, HICKS_HENNE, HICKS_HENNE, HICKS_HENNE, HICKS_HENNE, HICKS_HENNE, HICKS_HENNE, HICKS_HENNE, HICKS_HENNE, HICKS_HENNE, HICKS_HENNE, HICKS_HENNE, HICKS_HENNE, HICKS_HENNE, HICKS_HENNE, HICKS_HENNE, HICKS_HENNE, HICKS_HENNE, HICKS_HENNE, HICKS_HENNE, HICKS_HENNE, HICKS_HENNE, HICKS_HENNE, HICKS_HENNE, HICKS_HENNE, HICKS_HENNE, HICKS_HENNE, HICKS_HENNE, HICKS_HENNE, HICKS_HENNE, HICKS_HENNE, HICKS_HENNE, HICKS_HENNE, HICKS_HENNE, HICKS_HENNE
DV_MARKER= ( ( AIRFOIL ) )
DV_PARAM= ( 0.0, 0.05) ; ( 0.0, 0.1) ; ( 0.0, 0.15) ; ( 0.0, 0.2) ; ( 0.0, 0.25) ; ( 0.0, 0.3) ; ( 0.0, 0.35) ; ( 0.0, 0.4) ; ( 0.0, 0.45) ; ( 0.0, 0.5) ; ( 0.0, 0.55) ; ( 0.0, 0.6) ; ( 0.0, 0.65) ; ( 0.0, 0.7) ; ( 0.0, 0.75) ; ( 0.0, 0.8) ; ( 0.0, 0.85) ; ( 0.0, 0.9) ; ( 0.0, 0.95) ; ( 1.0, 0.05) ; ( 1.0, 0.1) ; ( 1.0, 0.15) ; ( 1.0, 0.2) ; ( 1.0, 0.25) ; ( 1.0, 0.3) ; ( 1.0, 0.35) ; ( 1.0, 0.4) ; ( 1.0, 0.45) ; ( 1.0, 0.5) ; ( 1.0, 0.55) ; ( 1.0, 0.6) ; ( 1.0, 0.65) ; ( 1.0, 0.7) ; ( 1.0, 0.75) ; ( 1.0, 0.8) ; ( 1.0, 0.85) ; ( 1.0, 0.9) ; ( 1.0, 0.95) 
DV_VALUE= -5.049319055580673e-06, -3.844984184195003e-06, -2.5610669817503313e-06, -1.3021330757635219e-06, -9.282550919819433e-08, 1.0747966751812788e-06, 2.2230474242886204e-06, 3.3745261888913296e-06, 4.540873672360193e-06, 5.709801451689035e-06, 6.824066167228231e-06, 7.763929694020421e-06, 8.338401866708346e-06, 8.286648412888447e-06, 7.323908544189341e-06, 5.244136869408908e-06, 1.970142213176852e-06, -2.6584493161873662e-06, -1.1479054095484675e-05, 1.6606130664264265e-06, -1.3524187622375452e-05, -1.8678822933416754e-05, -1.7586589880571673e-05, -1.3913895291064645e-05, -1.0007925343729827e-05, -6.769234258730577e-06, -3.958734531767844e-06, -7.881002878836546e-07, 3.2924485364633413e-06, 7.862436215030011e-06, 1.1248781121597212e-05, 1.119575271719996e-05, 6.722773739588763e-06, 2.254564268224702e-07, -2.870033688658891e-06, 8.094149480449563e-07, 7.711018255169543e-06, 1.0687646405484763e-05
OPT_OBJECTIVE= DRAG * 1.0 
OPT_CONSTRAINT= ( MOMENT_Z < 0.092 ) * 0.001; ( AIRFOIL_AREA > 0.0778446 ) * 0.001
OPT_GRADIENT_FACTOR= 1E-6
OPT_RELAX_FACTOR= 1E2
OPT_ITERATIONS= 100
OPT_ACCURACY= 1E-10
OPT_LINE_SEARCH_BOUND= 1E6
OPT_BOUND_UPPER= 1E10
OPT_BOUND_LOWER= -1E10
DEFINITION_DV= ( 30 , 1.0 | AIRFOIL  | 0.0 , 0.05  ); ( 30 , 1.0 | AIRFOIL  | 0.0 , 0.1  ); ( 30 , 1.0 | AIRFOIL  | 0.0 , 0.15  ); ( 30 , 1.0 | AIRFOIL  | 0.0 , 0.2  ); ( 30 , 1.0 | AIRFOIL  | 0.0 , 0.25  ); ( 30 , 1.0 | AIRFOIL  | 0.0 , 0.3  ); ( 30 , 1.0 | AIRFOIL  | 0.0 , 0.35  ); ( 30 , 1.0 | AIRFOIL  | 0.0 , 0.4  ); ( 30 , 1.0 | AIRFOIL  | 0.0 , 0.45  ); ( 30 , 1.0 | AIRFOIL  | 0.0 , 0.5  ); ( 30 , 1.0 | AIRFOIL  | 0.0 , 0.55  ); ( 30 , 1.0 | AIRFOIL  | 0.0 , 0.6  ); ( 30 , 1.0 | AIRFOIL  | 0.0 , 0.65  ); ( 30 , 1.0 | AIRFOIL  | 0.0 , 0.7  ); ( 30 , 1.0 | AIRFOIL  | 0.0 , 0.75  ); ( 30 , 1.0 | AIRFOIL  | 0.0 , 0.8  ); ( 30 , 1.0 | AIRFOIL  | 0.0 , 0.85  ); ( 30 , 1.0 | AIRFOIL  | 0.0 , 0.9  ); ( 30 , 1.0 | AIRFOIL  | 0.0 , 0.95  ); ( 30 , 1.0 | AIRFOIL  | 1.0 , 0.05  ); ( 30 , 1.0 | AIRFOIL  | 1.0 , 0.1  ); ( 30 , 1.0 | AIRFOIL  | 1.0 , 0.15  ); ( 30 , 1.0 | AIRFOIL  | 1.0 , 0.2  ); ( 30 , 1.0 | AIRFOIL  | 1.0 , 0.25  ); ( 30 , 1.0 | AIRFOIL  | 1.0 , 0.3  ); ( 30 , 1.0 | AIRFOIL  | 1.0 , 0.35  ); ( 30 , 1.0 | AIRFOIL  | 1.0 , 0.4  ); ( 30 , 1.0 | AIRFOIL  | 1.0 , 0.45  ); ( 30 , 1.0 | AIRFOIL  | 1.0 , 0.5  ); ( 30 , 1.0 | AIRFOIL  | 1.0 , 0.55  ); ( 30 , 1.0 | AIRFOIL  | 1.0 , 0.6  ); ( 30 , 1.0 | AIRFOIL  | 1.0 , 0.65  ); ( 30 , 1.0 | AIRFOIL  | 1.0 , 0.7  ); ( 30 , 1.0 | AIRFOIL  | 1.0 , 0.75  ); ( 30 , 1.0 | AIRFOIL  | 1.0 , 0.8  ); ( 30 , 1.0 | AIRFOIL  | 1.0 , 0.85  ); ( 30 , 1.0 | AIRFOIL  | 1.0 , 0.9  ); ( 30 , 1.0 | AIRFOIL  | 1.0 , 0.95  )
DV_VALUE_NEW= -5.049319055580673e-06, -3.844984184195003e-06, -2.5610669817503313e-06, -1.3021330757635219e-06, -9.282550919819433e-08, 1.0747966751812788e-06, 2.2230474242886204e-06, 3.3745261888913296e-06, 4.540873672360193e-06, 5.709801451689035e-06, 6.824066167228231e-06, 7.763929694020421e-06, 8.338401866708346e-06, 8.286648412888447e-06, 7.323908544189341e-06, 5.244136869408908e-06, 1.970142213176852e-06, -2.6584493161873662e-06, -1.1479054095484675e-05, 1.6606130664264265e-06, -1.3524187622375452e-05, -1.8678822933416754e-05, -1.7586589880571673e-05, -1.3913895291064645e-05, -1.0007925343729827e-05, -6.769234258730577e-06, -3.958734531767844e-06, -7.881002878836546e-07, 3.2924485364633413e-06, 7.862436215030011e-06, 1.1248781121597212e-05, 1.119575271719996e-05, 6.722773739588763e-06, 2.254564268224702e-07, -2.870033688658891e-06, 8.094149480449563e-07, 7.711018255169543e-06, 1.0687646405484763e-05
DV_VALUE_OLD= -5.049319055580673e-06, -3.844984184195003e-06, -2.5610669817503313e-06, -1.3021330757635219e-06, -9.282550919819433e-08, 1.0747966751812788e-06, 2.2230474242886204e-06, 3.3745261888913296e-06, 4.540873672360193e-06, 5.709801451689035e-06, 6.824066167228231e-06, 7.763929694020421e-06, 8.338401866708346e-06, 8.286648412888447e-06, 7.323908544189341e-06, 5.244136869408908e-06, 1.970142213176852e-06, -2.6584493161873662e-06, -1.1479054095484675e-05, 1.6606130664264265e-06, -1.3524187622375452e-05, -1.8678822933416754e-05, -1.7586589880571673e-05, -1.3913895291064645e-05, -1.0007925343729827e-05, -6.769234258730577e-06, -3.958734531767844e-06, -7.881002878836546e-07, 3.2924485364633413e-06, 7.862436215030011e-06, 1.1248781121597212e-05, 1.119575271719996e-05, 6.722773739588763e-06, 2.254564268224702e-07, -2.870033688658891e-06, 8.094149480449563e-07, 7.711018255169543e-06, 1.0687646405484763e-05
OPT_COMBINE_OBJECTIVE= NO
VALUE_OBJFUNC_FILENAME= of_eval.dat
SIDESLIP_ANGLE= 0.0
FREESTREAM_PRESSURE= 101325.0
MARKER_OUTLET= (NONE)
MULTIPOINT_WEIGHT= (1.0)
MULTIPOINT_MACH_NUMBER= (0.734)
MULTIPOINT_AOA= (2.31)
MULTIPOINT_SIDESLIP_ANGLE= (0.0)
MULTIPOINT_REYNOLDS_NUMBER= (6.5E6)
MULTIPOINT_TARGET_CL= (0.824)
MULTIPOINT_FREESTREAM_PRESSURE= (101325.0)
MULTIPOINT_FREESTREAM_TEMPERATURE= (288.15)
MULTIPOINT_OUTLET_VALUE= (0.0)
MULTIPOINT_MESH_FILENAME= (mesh_RAE2822_turb.su2)
HISTORY_OUTPUT= ITER, RMS_RES, AERO_COEFF
NUMBER_PART= 6
NZONES= 1
CONSOLE= CONCISE
GRADIENT_METHOD= DISCRETE_ADJOINT
