SOLVER= RANS
KIND_TURB_MODEL= SA
MATH_PROBLEM= DIRECT
RESTART_SOL= YES
MACH_NUMBER= 0.734
AOA= 2.31
FREESTREAM_TEMPERATURE= 288.15
REYNOLDS_NUMBER= 6.5E6
REYNOLDS_LENGTH= 1.0
GAMMA_VALUE= 1.4
CONDUCTIVITY_MODEL= CONSTANT_PRANDTL
PRANDTL_LAM= 0.71
FIXED_CL_MODE= YES
TARGET_CL= 0.824
DCL_DALPHA= 0.2
UPDATE_AOA_ITER_LIMIT= 100
ITER_DCL_DALPHA= 500
EVAL_DOF_DCX= NO
REF_ORIGIN_MOMENT_X= 0.25
REF_ORIGIN_MOMENT_Y= 0.00
REF_ORIGIN_MOMENT_Z= 0.00
REF_LENGTH= 1.0
REF_AREA= 1.0
MARKER_HEATFLUX= ( AIRFOIL, 0.0 )
MARKER_FAR= ( FARFIELD )
MARKER_PLOTTING= ( AIRFOIL )
MARKER_MONITORING= ( AIRFOIL )
NUM_METHOD_GRAD= WEIGHTED_LEAST_SQUARES
CFL_NUMBER= 10.0
ITER= 5000
OBJECTIVE_FUNCTION= DRAG
MUSCL_FLOW= NO
SLOPE_LIMITER_FLOW= VENKATAKRISHNAN
MUSCL_TURB= NO
SLOPE_LIMITER_TURB= VENKATAKRISHNAN
MUSCL_ADJFLOW= NO
SLOPE_LIMITER_ADJFLOW= VENKATAKRISHNAN
MUSCL_ADJTURB= NO
SLOPE_LIMITER_ADJTURB= VENKATAKRISHNAN
VENKAT_LIMITER_COEFF= 0.05
ADJ_SHARP_LIMITER_COEFF= 3.0
LIMITER_ITER= 999999
LAX_SENSOR_COEFF= 0.15
JST_SENSOR_COEFF= ( 0.5, 0.02 )
ADJ_LAX_SENSOR_COEFF= 0.15
ADJ_JST_SENSOR_COEFF= ( 0.5, 0.02 )
CONV_NUM_METHOD_FLOW= JST
ENTROPY_FIX_COEFF= 0.001
TIME_DISCRE_FLOW= EULER_IMPLICIT
CONV_NUM_METHOD_TURB= SCALAR_UPWIND
TIME_DISCRE_TURB= EULER_IMPLICIT
CFL_REDUCTION_TURB= 1.0
CONV_NUM_METHOD_ADJFLOW= JST
TIME_DISCRE_ADJFLOW= EULER_IMPLICIT
RELAXATION_FACTOR_ADJOINT= 1.0
CFL_REDUCTION_ADJFLOW= 0.8
LIMIT_ADJFLOW= 1E6
GEO_MARKER= ( AIRFOIL )
GEO_DESCRIPTION= AIRFOIL
GEO_MODE= FUNCTION
CONV_RESIDUAL_MINVAL= -12
CONV_STARTITER= 10
CONV_CAUCHY_ELEMS= 100
CONV_CAUCHY_EPS= 1E-6
MESH_FILENAME= mesh_RAE2822_turb_deform.su2
MESH_FORMAT= SU2
MESH_OUT_FILENAME= mesh_out.su2
SOLUTION_FILENAME= restart_flow.dat
SOLUTION_ADJ_FILENAME= solution_adj.dat
TABULAR_FORMAT= CSV
CONV_FILENAME= history_direct
RESTART_FILENAME= restart_flow.dat
RESTART_ADJ_FILENAME= restart_adj.dat
VOLUME_FILENAME= flow
VOLUME_ADJ_FILENAME= adjoint
GRAD_OBJFUNC_FILENAME= of_grad.dat
SURFACE_FILENAME= surface_flow
SURFACE_ADJ_FILENAME= surface_adjoint
OUTPUT_WRT_FREQ= 10000
SCREEN_OUTPUT= (INNER_ITER, RMS_DENSITY, RMS_NU_TILDE, LIFT, DRAG)
OUTPUT_FILES= (RESTART, PARAVIEW, SURFACE_PARAVIEW, SURFACE_CSV)
DV_KIND= HICKS_HENNE, HICKS_HENNE, HICKS_HENNE, HICKS_HENNE, HICKS_HENNE, HICKS_HENNE, HICKS_HENNE, HICKS_HENNE, HICKS_HENNE, HICKS_HENNE, HICKS_HENNE, HICKS_HENNE, HICKS_HENNE, HICKS_HENNE, HICKS_HENNE, HICKS_HENNE, HICKS_HENNE, HICKS_HENNE, HICKS_HENNE, HICKS_HENNE, HICKS_HENNE, HICKS_HENNE, HICKS_HENNE, HICKS_HENNE, HICKS_HENNE, HICKS_HENNE, HICKS_HENNE, HICKS_HENNE, HICKS_HENNE, HICKS_HENNE, HICKS_HENNE, HICKS_HENNE, HICKS_HENNE, HICKS_HENNE, HICKS_HENNE, HICKS_HENNE, HICKS_HENNE, HICKS_HENNE
DV_MARKER= ( ( AIRFOIL ) )
DV_PARAM= ( 0.0, 0.05) ; ( 0.0, 0.1) ; ( 0.0, 0.15) ; ( 0.0, 0.2) ; ( 0.0, 0.25) ; ( 0.0, 0.3) ; ( 0.0, 0.35) ; ( 0.0, 0.4) ; ( 0.0, 0.45) ; ( 0.0, 0.5) ; ( 0.0, 0.55) ; ( 0.0, 0.6) ; ( 0.0, 0.65) ; ( 0.0, 0.7) ; ( 0.0, 0.75) ; ( 0.0, 0.8) ; ( 0.0, 0.85) ; ( 0.0, 0.9) ; ( 0.0, 0.95) ; ( 1.0, 0.05) ; ( 1.0, 0.1) ; ( 1.0, 0.15) ; ( 1.0, 0.2) ; ( 1.0, 0.25) ; ( 1.0, 0.3) ; ( 1.0, 0.35) ; ( 1.0, 0.4) ; ( 1.0, 0.45) ; ( 1.0, 0.5) ; ( 1.0, 0.55) ; ( 1.0, 0.6) ; ( 1.0, 0.65) ; ( 1.0, 0.7) ; ( 1.0, 0.75) ; ( 1.0, 0.8) ; ( 1.0, 0.85) ; ( 1.0, 0.9) ; ( 1.0, 0.95) 
DV_VALUE= -1.8728931215318012e-05, -9.554961399993206e-06, -3.2630740997058367e-06, 8.591111362105477e-07, 3.291772762687474e-06, 4.515757663189548e-06, 5.0283818268219785e-06, 5.324236386381898e-06, 5.853871120969778e-06, 6.946087915296396e-06, 8.692077654371232e-06, 1.0814553272571702e-05, 1.2602420339898929e-05, 1.2912726975630127e-05, 1.0484978521290227e-05, 4.800665293936393e-06, -2.8682076945280968e-06, -8.517853868154623e-06, -2.1147744076292306e-05, -7.998029063531848e-06, -1.66362740998662e-05, -1.848391403186465e-05, -1.4500270022072307e-05, -9.60176777035936e-06, -7.06402879372703e-06, -7.419496821376541e-06, -8.699975146699486e-06, -7.726501803938676e-06, -2.228307713199386e-06, 6.9355274862134e-06, 1.494104084871691e-05, 1.5258591201292362e-05, 5.788947249903539e-06, -5.46089768136417e-06, -4.784241623140444e-06, 7.377913422936429e-06, 1.0349450919126123e-05, 1.3639001341257904e-05
OPT_OBJECTIVE= DRAG * 1.0 
OPT_CONSTRAINT= ( MOMENT_Z < 0.092 ) * 0.001; ( AIRFOIL_AREA > 0.0778446 ) * 0.001
OPT_GRADIENT_FACTOR= 1E-6
OPT_RELAX_FACTOR= 1E2
OPT_ITERATIONS= 100
OPT_ACCURACY= 1E-10
OPT_LINE_SEARCH_BOUND= 1E6
OPT_BOUND_UPPER= 1E10
OPT_BOUND_LOWER= -1E10
DEFINITION_DV= ( 30 , 1.0 | AIRFOIL  | 0.0 , 0.05  ); ( 30 , 1.0 | AIRFOIL  | 0.0 , 0.1  ); ( 30 , 1.0 | AIRFOIL  | 0.0 , 0.15  ); ( 30 , 1.0 | AIRFOIL  | 0.0 , 0.2  ); ( 30 , 1.0 | AIRFOIL  | 0.0 , 0.25  ); ( 30 , 1.0 | AIRFOIL  | 0.0 , 0.3  ); ( 30 , 1.0 | AIRFOIL  | 0.0 , 0.35  ); ( 30 , 1.0 | AIRFOIL  | 0.0 , 0.4  ); ( 30 , 1.0 | AIRFOIL  | 0.0 , 0.45  ); ( 30 , 1.0 | AIRFOIL  | 0.0 , 0.5  ); ( 30 , 1.0 | AIRFOIL  | 0.0 , 0.55  ); ( 30 , 1.0 | AIRFOIL  | 0.0 , 0.6  ); ( 30 , 1.0 | AIRFOIL  | 0.0 , 0.65  ); ( 30 , 1.0 | AIRFOIL  | 0.0 , 0.7  ); ( 30 , 1.0 | AIRFOIL  | 0.0 , 0.75  ); ( 30 , 1.0 | AIRFOIL  | 0.0 , 0.8  ); ( 30 , 1.0 | AIRFOIL  | 0.0 , 0.85  ); ( 30 , 1.0 | AIRFOIL  | 0.0 , 0.9  ); ( 30 , 1.0 | AIRFOIL  | 0.0 , 0.95  ); ( 30 , 1.0 | AIRFOIL  | 1.0 , 0.05  ); ( 30 , 1.0 | AIRFOIL  | 1.0 , 0.1  ); ( 30 , 1.0 | AIRFOIL  | 1.0 , 0.15  ); ( 30 , 1.0 | AIRFOIL  | 1.0 , 0.2  ); ( 30 , 1.0 | AIRFOIL  | 1.0 , 0.25  ); ( 30 , 1.0 | AIRFOIL  | 1.0 , 0.3  ); ( 30 , 1.0 | AIRFOIL  | 1.0 , 0.35  ); ( 30 , 1.0 | AIRFOIL  | 1.0 , 0.4  ); ( 30 , 1.0 | AIRFOIL  | 1.0 , 0.45  ); ( 30 , 1.0 | AIRFOIL  | 1.0 , 0.5  ); ( 30 , 1.0 | AIRFOIL  | 1.0 , 0.55  ); ( 30 , 1.0 | AIRFOIL  | 1.0 , 0.6  ); ( 30 , 1.0 | AIRFOIL  | 1.0 , 0.65  ); ( 30 , 1.0 | AIRFOIL  | 1.0 , 0.7  ); ( 30 , 1.0 | AIRFOIL  | 1.0 , 0.75  ); ( 30 , 1.0 | AIRFOIL  | 1.0 , 0.8  ); ( 30 , 1.0 | AIRFOIL  | 1.0 , 0.85  ); ( 30 , 1.0 | AIRFOIL  | 1.0 , 0.9  ); ( 30 , 1.0 | AIRFOIL  | 1.0 , 0.95  )
DV_VALUE_NEW= -1.8728931215318012e-05, -9.554961399993206e-06, -3.2630740997058367e-06, 8.591111362105477e-07, 3.291772762687474e-06, 4.515757663189548e-06, 5.0283818268219785e-06, 5.324236386381898e-06, 5.853871120969778e-06, 6.946087915296396e-06, 8.692077654371232e-06, 1.0814553272571702e-05, 1.2602420339898929e-05, 1.2912726975630127e-05, 1.0484978521290227e-05, 4.800665293936393e-06, -2.8682076945280968e-06, -8.517853868154623e-06, -2.1147744076292306e-05, -7.998029063531848e-06, -1.66362740998662e-05, -1.848391403186465e-05, -1.4500270022072307e-05, -9.60176777035936e-06, -7.06402879372703e-06, -7.419496821376541e-06, -8.699975146699486e-06, -7.726501803938676e-06, -2.228307713199386e-06, 6.9355274862134e-06, 1.494104084871691e-05, 1.5258591201292362e-05, 5.788947249903539e-06, -5.46089768136417e-06, -4.784241623140444e-06, 7.377913422936429e-06, 1.0349450919126123e-05, 1.3639001341257904e-05
DV_VALUE_OLD= -1.8728931215318012e-05, -9.554961399993206e-06, -3.2630740997058367e-06, 8.591111362105477e-07, 3.291772762687474e-06, 4.515757663189548e-06, 5.0283818268219785e-06, 5.324236386381898e-06, 5.853871120969778e-06, 6.946087915296396e-06, 8.692077654371232e-06, 1.0814553272571702e-05, 1.2602420339898929e-05, 1.2912726975630127e-05, 1.0484978521290227e-05, 4.800665293936393e-06, -2.8682076945280968e-06, -8.517853868154623e-06, -2.1147744076292306e-05, -7.998029063531848e-06, -1.66362740998662e-05, -1.848391403186465e-05, -1.4500270022072307e-05, -9.60176777035936e-06, -7.06402879372703e-06, -7.419496821376541e-06, -8.699975146699486e-06, -7.726501803938676e-06, -2.228307713199386e-06, 6.9355274862134e-06, 1.494104084871691e-05, 1.5258591201292362e-05, 5.788947249903539e-06, -5.46089768136417e-06, -4.784241623140444e-06, 7.377913422936429e-06, 1.0349450919126123e-05, 1.3639001341257904e-05
OPT_COMBINE_OBJECTIVE= NO
VALUE_OBJFUNC_FILENAME= of_eval.dat
SIDESLIP_ANGLE= 0.0
FREESTREAM_PRESSURE= 101325.0
MARKER_OUTLET= (NONE)
MULTIPOINT_WEIGHT= (1.0)
MULTIPOINT_MACH_NUMBER= (0.734)
MULTIPOINT_AOA= (2.31)
MULTIPOINT_SIDESLIP_ANGLE= (0.0)
MULTIPOINT_REYNOLDS_NUMBER= (6.5E6)
MULTIPOINT_TARGET_CL= (0.824)
MULTIPOINT_FREESTREAM_PRESSURE= (101325.0)
MULTIPOINT_FREESTREAM_TEMPERATURE= (288.15)
MULTIPOINT_OUTLET_VALUE= (0.0)
MULTIPOINT_MESH_FILENAME= (mesh_RAE2822_turb.su2)
HISTORY_OUTPUT= ITER, RMS_RES, AERO_COEFF
NUMBER_PART= 6
NZONES= 1
CONSOLE= CONCISE
GRADIENT_METHOD= DISCRETE_ADJOINT
